Version 4
SHEET 1 1428 760
WIRE 976 224 560 224
WIRE 1184 224 976 224
WIRE 1328 224 1184 224
WIRE 1184 272 1184 224
WIRE 976 288 976 224
WIRE 1328 320 1328 224
WIRE 1184 400 1184 352
WIRE 1280 400 1184 400
WIRE 976 464 976 368
WIRE 560 496 560 224
WIRE 688 496 560 496
WIRE 800 496 752 496
WIRE 864 496 800 496
WIRE 1184 512 1184 480
WIRE 1232 512 1184 512
WIRE 1328 512 1328 416
WIRE 1328 512 1296 512
WIRE 560 544 560 496
WIRE 864 544 864 496
WIRE 928 544 864 544
WIRE 1328 544 1328 512
WIRE 800 592 800 496
WIRE 1184 608 1184 576
WIRE 560 688 560 624
WIRE 800 688 800 672
WIRE 800 688 560 688
WIRE 976 688 976 560
WIRE 976 688 800 688
WIRE 1184 688 1184 672
WIRE 1184 688 976 688
WIRE 1328 688 1328 624
WIRE 1328 688 1184 688
WIRE 976 720 976 688
FLAG 976 720 0
SYMBOL nmos 928 464 R0
SYMATTR InstName M1
SYMATTR Value BSS123
SYMBOL res 784 576 R0
SYMATTR InstName R1
SYMATTR Value 100k
SYMBOL zener 752 480 R90
WINDOW 0 0 32 VBottom 2
WINDOW 3 32 32 VTop 2
SYMATTR InstName D1
SYMATTR Value TDZV6_8
SYMATTR Description Diode
SYMATTR Type diode
SYMBOL voltage 560 528 R0
WINDOW 123 0 0 Left 0
WINDOW 39 0 0 Left 0
SYMATTR InstName V1
SYMATTR Value PWL(0 0 10m 13)
SYMBOL res 960 272 R0
SYMATTR InstName R2
SYMATTR Value 1k
SYMBOL res 1168 256 R0
SYMATTR InstName R3
SYMATTR Value 100k
SYMBOL res 1168 384 R0
SYMATTR InstName R4
SYMATTR Value 100k
SYMBOL cap 1168 512 R0
SYMATTR InstName C1
SYMATTR Value 0.1n
SYMBOL cap 1168 608 R0
SYMATTR InstName C2
SYMATTR Value 1n
SYMBOL res 1312 528 R0
SYMATTR InstName R5
SYMATTR Value 10k
SYMBOL diode 1232 528 R270
WINDOW 0 32 32 VTop 2
WINDOW 3 0 32 VBottom 2
SYMATTR InstName D2
SYMATTR Value 1N4148
SYMBOL nmos 1280 320 R0
SYMATTR InstName M2
SYMATTR Value BSS123
TEXT 520 744 Left 2 !.tran 1000m
